                                   MODFLOW 6
                U.S. GEOLOGICAL SURVEY MODULAR HYDROLOGIC MODEL
                             TRANSPORT MODEL (GWT)
                            VERSION 6.6.1 02/10/2025

   MODFLOW 6 compiled Feb 14 2025 13:39:18 with Intel(R) Fortran Intel(R) 64
   Compiler Classic for applications running on Intel(R) 64, Version 2021.7.0
                             Build 20220726_000000

This software has been approved for release by the U.S. Geological 
Survey (USGS). Although the software has been subjected to rigorous 
review, the USGS reserves the right to update the software as needed 
pursuant to further analysis and review. No warranty, expressed or 
implied, is made by the USGS or the U.S. Government as to the 
functionality of the software and related material nor shall the 
fact of release constitute any such warranty. Furthermore, the 
software is released on condition that neither the USGS nor the U.S. 
Government shall be held liable for any damages resulting from its 
authorized or unauthorized use. Also refer to the USGS Water 
Resources Software User Rights Notice for complete use, copyright, 
and distribution information.


As a work of the United States Government, this USGS product is 
in the public domain within the United States. You can copy, 
modify, distribute, and perform the work, even for commercial 
purposes, all without asking permission. Additionally, USGS 
waives copyright and related rights in the work worldwide 
through CC0 1.0 Universal Public Domain Dedication 
(https://creativecommons.org/publicdomain/zero/1.0/).

The following GNU Lesser General Public License (LGPL) libraries
are used in this USGS product:

    SPARSKIT version 2.0
      ilut, luson, and qsplit 
      (https://www-users.cse.umn.edu/~saad/software/SPARSKIT/)

    RCM - Reverse Cuthill McKee Ordering
      (https://people.math.sc.edu/Burkardt/f_src/rcm/rcm.html)

    BLAS - Basic Linear Algebra Subprograms Level 1
      (https://people.math.sc.edu/Burkardt/f_src/blas1_d/blas1_d.html)

    SPARSEKIT - Sparse Matrix Utility Package
      amux, dperm, dvperm, rperm, and cperm
      (https://people.sc.fsu.edu/~jburkardt/f77_src/sparsekit/sparsekit.html)

The following BSD-3 License libraries are used in this USGS product:

    Modern Fortran DAG Library
      Copyright (c) 2018, Jacob Williams
      All rights reserved.
      (https://github.com/jacobwilliams/daglib)

MODFLOW 6 compiler options: -Ilinux/obj_mf6 -O2 -no-heap-arrays -fpe0
-traceback -Qdiag-disable:7416 -Qdiag-disable:7025 -Qdiag-disable:5268 -fpp
-module linux/mod_mf6/ -c -o linux/obj_mf6/compilerversion.o

System command used to initiate simulation:
/home/jorge/Documents/github/transport_mt3d_working/linux/mf6

MODFLOW was compiled using uniform precision.

Real Variables
  KIND: 8
  TINY (smallest non-zero value):    2.225074-308
  HUGE (largest value):    1.797693+308
  PRECISION: 15
  SIZE IN BITS: 64

Integer Variables
  KIND: 4
  HUGE (largest value): 2147483647
  SIZE IN BITS: 32

Long Integer Variables
  KIND: 8
  HUGE (largest value): 9223372036854775807
  SIZE IN BITS: 64

Logical Variables
  KIND: 4
  SIZE IN BITS: 32
 
 NAMEFILE OPTIONS:
    FLOWS WILL BE SAVED TO BUDGET FILE SPECIFIED IN OUTPUT CONTROL
 END NAMEFILE OPTIONS:

 DIS -- STRUCTURED GRID DISCRETIZATION PACKAGE, VERSION 2 : 3/27/2014 - INPUT READ FROM MEMPATH: __INPUT__/GWT-P09-MF6/DIS                         


 DSP-- DISPERSION PACKAGE, VERSION 1, 1/24/2018 INPUT READ FROM MEMPATH: __INPUT__/GWT-P09-MF6/DSP                         


 Setting Discretization Options
 End Setting Discretization Options

 Setting Discretization Dimensions
    NLAY = 1
    NROW = 18
    NCOL = 14
 End Setting Discretization Dimensions

 Setting Discretization Griddata
    DELR set from input file
    DELC set from input file
    TOP set from input file
    BOTM set from input file
    IDOMAIN set from input file
 End Setting Discretization Griddata


 FMI -- FLOW MODEL INTERFACE,' VERSION 2, 8/17/2023
  FLOWS PROVIDED BY A GWF MODEL IN THIS SIMULATION

 ADV-- ADVECTION PACKAGE, VERSION 1, 8/25/2017 INPUT READ FROM UNIT 1015


 # File generated by Flopy version 3.10.0 on 05/14/2026 at 20:43:55.
 PROCESSING ADVECTION OPTIONS
    ADVECTION WEIGHTING SCHEME HAS BEEN SET TO: TVD
 END OF ADVECTION OPTIONS
 Setting DSP Options
    XT3D formulation [0=INACTIVE, 1=ACTIVE, 3=ACTIVE RHS] set to: 1
 End Setting DSP Options

 Setting DSP Griddata
    ALH set from input file
    ATH1 set from input file
 End Setting DSP Griddata

    STRT set from input file

 MST -- MOBILE STORAGE AND TRANSFER PACKAGE, VERSION 1, 7/29/2020 INPUT READ FROM UNIT 1014


 # File generated by Flopy version 3.10.0 on 05/14/2026 at 20:43:55.
 PROCESSING MOBILE STORAGE AND TRANSFER OPTIONS
 END OF MOBILE STORAGE AND TRANSFER OPTIONS
 PROCESSING GRIDDATA

   MOBILE DOMAIN POROSITY =  0.3000000    
 END PROCESSING GRIDDATA

 SSM -- SOURCE-SINK MIXING PACKAGE, VERSION 1, 8/25/2017 INPUT READ FROM UNIT 1017


 # File generated by Flopy version 3.10.0 on 05/14/2026 at 20:43:55.
 PROCESSING SSM OPTIONS
    SSM FLOW INFORMATION WILL BE PRINTED TO LISTING FILE WHENEVER ICBCFL IS NOT ZERO.
 END OF SSM OPTIONS
 PROCESSING SOURCES
 AUX SOURCE DETECTED.
    USING AUX COLUMN 1 IN PACKAGE WEL-1
 AUX SOURCE DETECTED.
    USING AUX COLUMN 1 IN PACKAGE CHD-1
 END PROCESSING SOURCES
 OPTIONAL FILEINPUT BLOCK NOT FOUND.  CONTINUING.
      THE LAST TIME STEP WILL BE PRINTED
      THE LAST TIME STEP WILL BE PRINTED
 # File generated by Flopy version 3.10.0 on 05/14/2026 at 20:43:55.

 PROCESSING OC OPTIONS

    BUDGET INFORMATION WILL BE WRITTEN TO:
      UNIT NUMBER: 1027
      FILE NAME: gwt-p09-mf6.cbc

 OPENED gwt-p09-mf6.cbc
 FILE TYPE:DATA(BINARY)   UNIT 1027   STATUS:REPLACE             
 FORMAT:UNFORMATTED            ACCESS:STREAM              
 ACTION:READWRITE           

    CONCENTRATION INFORMATION WILL BE WRITTEN TO:
      UNIT NUMBER: 1028
      FILE NAME: gwt-p09-mf6.ucn

 OPENED gwt-p09-mf6.ucn
 FILE TYPE:DATA(BINARY)   UNIT 1028   STATUS:REPLACE             
 FORMAT:UNFORMATTED            ACCESS:STREAM              
 ACTION:READWRITE           

 END OF OC OPTIONS

start timestep kper="1" kstp="1" mode="normal"


 BEGIN READING OUTPUT CONTROL FOR STRESS PERIOD 1
      THE LAST TIME STEP WILL BE SAVED
      THE LAST TIME STEP WILL BE SAVED
      THE LAST TIME STEP WILL BE PRINTED
      THE LAST TIME STEP WILL BE PRINTED

 END READING OUTPUT CONTROL FOR STRESS PERIOD 1

 XT3D is active.



end timestep


start timestep kper="1" kstp="2" mode="normal"


end timestep


start timestep kper="1" kstp="3" mode="normal"


end timestep


start timestep kper="1" kstp="4" mode="normal"


end timestep


start timestep kper="1" kstp="5" mode="normal"


end timestep


start timestep kper="1" kstp="6" mode="normal"


end timestep


start timestep kper="1" kstp="7" mode="normal"


end timestep


start timestep kper="1" kstp="8" mode="normal"


end timestep


start timestep kper="1" kstp="9" mode="normal"


end timestep


start timestep kper="1" kstp="10" mode="normal"


end timestep


start timestep kper="1" kstp="11" mode="normal"


end timestep


start timestep kper="1" kstp="12" mode="normal"


end timestep


start timestep kper="1" kstp="13" mode="normal"


end timestep


start timestep kper="1" kstp="14" mode="normal"


end timestep


start timestep kper="1" kstp="15" mode="normal"


end timestep


start timestep kper="1" kstp="16" mode="normal"


end timestep


start timestep kper="1" kstp="17" mode="normal"


end timestep


start timestep kper="1" kstp="18" mode="normal"


end timestep


start timestep kper="1" kstp="19" mode="normal"


end timestep


start timestep kper="1" kstp="20" mode="normal"


end timestep


start timestep kper="1" kstp="21" mode="normal"


end timestep


start timestep kper="1" kstp="22" mode="normal"


end timestep


start timestep kper="1" kstp="23" mode="normal"


end timestep


start timestep kper="1" kstp="24" mode="normal"


end timestep


start timestep kper="1" kstp="25" mode="normal"


end timestep


start timestep kper="1" kstp="26" mode="normal"


end timestep


start timestep kper="1" kstp="27" mode="normal"


end timestep


start timestep kper="1" kstp="28" mode="normal"


end timestep


start timestep kper="1" kstp="29" mode="normal"


end timestep


start timestep kper="1" kstp="30" mode="normal"


end timestep


start timestep kper="1" kstp="31" mode="normal"


end timestep


start timestep kper="1" kstp="32" mode="normal"


end timestep


start timestep kper="1" kstp="33" mode="normal"


end timestep


start timestep kper="1" kstp="34" mode="normal"


end timestep


start timestep kper="1" kstp="35" mode="normal"


end timestep


start timestep kper="1" kstp="36" mode="normal"


end timestep


start timestep kper="1" kstp="37" mode="normal"


end timestep


start timestep kper="1" kstp="38" mode="normal"


end timestep


start timestep kper="1" kstp="39" mode="normal"


end timestep


start timestep kper="1" kstp="40" mode="normal"


end timestep


start timestep kper="1" kstp="41" mode="normal"


end timestep


start timestep kper="1" kstp="42" mode="normal"


end timestep


start timestep kper="1" kstp="43" mode="normal"


end timestep


start timestep kper="1" kstp="44" mode="normal"


end timestep


start timestep kper="1" kstp="45" mode="normal"


end timestep


start timestep kper="1" kstp="46" mode="normal"


end timestep


start timestep kper="1" kstp="47" mode="normal"


end timestep


start timestep kper="1" kstp="48" mode="normal"


end timestep


start timestep kper="1" kstp="49" mode="normal"


end timestep


start timestep kper="1" kstp="50" mode="normal"


end timestep


start timestep kper="1" kstp="51" mode="normal"


end timestep


start timestep kper="1" kstp="52" mode="normal"


end timestep


start timestep kper="1" kstp="53" mode="normal"


end timestep


start timestep kper="1" kstp="54" mode="normal"


end timestep


start timestep kper="1" kstp="55" mode="normal"


end timestep


start timestep kper="1" kstp="56" mode="normal"


end timestep


start timestep kper="1" kstp="57" mode="normal"


end timestep


start timestep kper="1" kstp="58" mode="normal"


end timestep


start timestep kper="1" kstp="59" mode="normal"


end timestep


start timestep kper="1" kstp="60" mode="normal"


end timestep


start timestep kper="1" kstp="61" mode="normal"


end timestep


start timestep kper="1" kstp="62" mode="normal"


end timestep


start timestep kper="1" kstp="63" mode="normal"


end timestep


start timestep kper="1" kstp="64" mode="normal"


end timestep


start timestep kper="1" kstp="65" mode="normal"


end timestep


start timestep kper="1" kstp="66" mode="normal"


end timestep


start timestep kper="1" kstp="67" mode="normal"


end timestep


start timestep kper="1" kstp="68" mode="normal"


end timestep


start timestep kper="1" kstp="69" mode="normal"


end timestep


start timestep kper="1" kstp="70" mode="normal"


end timestep


start timestep kper="1" kstp="71" mode="normal"


end timestep


start timestep kper="1" kstp="72" mode="normal"


end timestep


start timestep kper="1" kstp="73" mode="normal"


end timestep


start timestep kper="1" kstp="74" mode="normal"


end timestep


start timestep kper="1" kstp="75" mode="normal"


end timestep


start timestep kper="1" kstp="76" mode="normal"


end timestep


start timestep kper="1" kstp="77" mode="normal"


end timestep


start timestep kper="1" kstp="78" mode="normal"


end timestep


start timestep kper="1" kstp="79" mode="normal"


end timestep


start timestep kper="1" kstp="80" mode="normal"


end timestep


start timestep kper="1" kstp="81" mode="normal"


end timestep


start timestep kper="1" kstp="82" mode="normal"


end timestep


start timestep kper="1" kstp="83" mode="normal"


end timestep


start timestep kper="1" kstp="84" mode="normal"


end timestep


start timestep kper="1" kstp="85" mode="normal"


end timestep


start timestep kper="1" kstp="86" mode="normal"


end timestep


start timestep kper="1" kstp="87" mode="normal"


end timestep


start timestep kper="1" kstp="88" mode="normal"


end timestep


start timestep kper="1" kstp="89" mode="normal"


end timestep


start timestep kper="1" kstp="90" mode="normal"


end timestep


start timestep kper="1" kstp="91" mode="normal"


end timestep


start timestep kper="1" kstp="92" mode="normal"


end timestep


start timestep kper="1" kstp="93" mode="normal"


end timestep


start timestep kper="1" kstp="94" mode="normal"


end timestep


start timestep kper="1" kstp="95" mode="normal"


end timestep


start timestep kper="1" kstp="96" mode="normal"


end timestep


start timestep kper="1" kstp="97" mode="normal"


end timestep


start timestep kper="1" kstp="98" mode="normal"


end timestep


start timestep kper="1" kstp="99" mode="normal"


end timestep


start timestep kper="1" kstp="100" mode="normal"


end timestep


start timestep kper="1" kstp="101" mode="normal"


end timestep


start timestep kper="1" kstp="102" mode="normal"


end timestep


start timestep kper="1" kstp="103" mode="normal"


end timestep


start timestep kper="1" kstp="104" mode="normal"


end timestep


start timestep kper="1" kstp="105" mode="normal"


end timestep


start timestep kper="1" kstp="106" mode="normal"


end timestep


start timestep kper="1" kstp="107" mode="normal"


end timestep


start timestep kper="1" kstp="108" mode="normal"


end timestep


start timestep kper="1" kstp="109" mode="normal"


end timestep


start timestep kper="1" kstp="110" mode="normal"


end timestep


start timestep kper="1" kstp="111" mode="normal"


end timestep


start timestep kper="1" kstp="112" mode="normal"


end timestep


start timestep kper="1" kstp="113" mode="normal"


end timestep


start timestep kper="1" kstp="114" mode="normal"


end timestep


start timestep kper="1" kstp="115" mode="normal"


end timestep


start timestep kper="1" kstp="116" mode="normal"


end timestep


start timestep kper="1" kstp="117" mode="normal"


end timestep


start timestep kper="1" kstp="118" mode="normal"


end timestep


start timestep kper="1" kstp="119" mode="normal"


end timestep


start timestep kper="1" kstp="120" mode="normal"


end timestep


start timestep kper="1" kstp="121" mode="normal"


end timestep


start timestep kper="1" kstp="122" mode="normal"


end timestep


start timestep kper="1" kstp="123" mode="normal"


end timestep


start timestep kper="1" kstp="124" mode="normal"


end timestep


start timestep kper="1" kstp="125" mode="normal"


end timestep


start timestep kper="1" kstp="126" mode="normal"


end timestep


start timestep kper="1" kstp="127" mode="normal"


end timestep


start timestep kper="1" kstp="128" mode="normal"


end timestep


start timestep kper="1" kstp="129" mode="normal"


end timestep


start timestep kper="1" kstp="130" mode="normal"


end timestep


start timestep kper="1" kstp="131" mode="normal"


end timestep


start timestep kper="1" kstp="132" mode="normal"


end timestep


start timestep kper="1" kstp="133" mode="normal"


end timestep


start timestep kper="1" kstp="134" mode="normal"


end timestep


start timestep kper="1" kstp="135" mode="normal"


end timestep


start timestep kper="1" kstp="136" mode="normal"


end timestep


start timestep kper="1" kstp="137" mode="normal"


end timestep


start timestep kper="1" kstp="138" mode="normal"


end timestep


start timestep kper="1" kstp="139" mode="normal"


end timestep


start timestep kper="1" kstp="140" mode="normal"


end timestep


start timestep kper="1" kstp="141" mode="normal"


end timestep


start timestep kper="1" kstp="142" mode="normal"


end timestep


start timestep kper="1" kstp="143" mode="normal"


end timestep


start timestep kper="1" kstp="144" mode="normal"


end timestep


start timestep kper="1" kstp="145" mode="normal"


end timestep


start timestep kper="1" kstp="146" mode="normal"


end timestep


start timestep kper="1" kstp="147" mode="normal"


end timestep


start timestep kper="1" kstp="148" mode="normal"


end timestep


start timestep kper="1" kstp="149" mode="normal"


end timestep


start timestep kper="1" kstp="150" mode="normal"


end timestep


start timestep kper="1" kstp="151" mode="normal"


end timestep


start timestep kper="1" kstp="152" mode="normal"


end timestep


start timestep kper="1" kstp="153" mode="normal"


end timestep


start timestep kper="1" kstp="154" mode="normal"


end timestep


start timestep kper="1" kstp="155" mode="normal"


end timestep


start timestep kper="1" kstp="156" mode="normal"


end timestep


start timestep kper="1" kstp="157" mode="normal"


end timestep


start timestep kper="1" kstp="158" mode="normal"


end timestep


start timestep kper="1" kstp="159" mode="normal"


end timestep


start timestep kper="1" kstp="160" mode="normal"


end timestep


start timestep kper="1" kstp="161" mode="normal"


end timestep


start timestep kper="1" kstp="162" mode="normal"


end timestep


start timestep kper="1" kstp="163" mode="normal"


end timestep


start timestep kper="1" kstp="164" mode="normal"


end timestep


start timestep kper="1" kstp="165" mode="normal"


end timestep


start timestep kper="1" kstp="166" mode="normal"


end timestep


start timestep kper="1" kstp="167" mode="normal"


end timestep


start timestep kper="1" kstp="168" mode="normal"


end timestep


start timestep kper="1" kstp="169" mode="normal"


end timestep


start timestep kper="1" kstp="170" mode="normal"


end timestep


start timestep kper="1" kstp="171" mode="normal"


end timestep


start timestep kper="1" kstp="172" mode="normal"


end timestep


start timestep kper="1" kstp="173" mode="normal"


end timestep


start timestep kper="1" kstp="174" mode="normal"


end timestep


start timestep kper="1" kstp="175" mode="normal"


end timestep


start timestep kper="1" kstp="176" mode="normal"


end timestep


start timestep kper="1" kstp="177" mode="normal"


end timestep


start timestep kper="1" kstp="178" mode="normal"


end timestep


start timestep kper="1" kstp="179" mode="normal"


end timestep


start timestep kper="1" kstp="180" mode="normal"


end timestep


start timestep kper="1" kstp="181" mode="normal"


end timestep


start timestep kper="1" kstp="182" mode="normal"


end timestep


start timestep kper="1" kstp="183" mode="normal"


end timestep


start timestep kper="1" kstp="184" mode="normal"


end timestep


start timestep kper="1" kstp="185" mode="normal"


end timestep


start timestep kper="1" kstp="186" mode="normal"


end timestep


start timestep kper="1" kstp="187" mode="normal"


end timestep


start timestep kper="1" kstp="188" mode="normal"


end timestep


start timestep kper="1" kstp="189" mode="normal"


end timestep


start timestep kper="1" kstp="190" mode="normal"


end timestep


start timestep kper="1" kstp="191" mode="normal"


end timestep


start timestep kper="1" kstp="192" mode="normal"


end timestep


start timestep kper="1" kstp="193" mode="normal"


end timestep


start timestep kper="1" kstp="194" mode="normal"


end timestep


start timestep kper="1" kstp="195" mode="normal"


end timestep


start timestep kper="1" kstp="196" mode="normal"


end timestep


start timestep kper="1" kstp="197" mode="normal"


end timestep


start timestep kper="1" kstp="198" mode="normal"


end timestep


start timestep kper="1" kstp="199" mode="normal"


end timestep


start timestep kper="1" kstp="200" mode="normal"


end timestep


start timestep kper="1" kstp="201" mode="normal"


end timestep


start timestep kper="1" kstp="202" mode="normal"


end timestep


start timestep kper="1" kstp="203" mode="normal"


end timestep


start timestep kper="1" kstp="204" mode="normal"


end timestep


start timestep kper="1" kstp="205" mode="normal"


end timestep


start timestep kper="1" kstp="206" mode="normal"


end timestep


start timestep kper="1" kstp="207" mode="normal"


end timestep


start timestep kper="1" kstp="208" mode="normal"


end timestep


start timestep kper="1" kstp="209" mode="normal"


end timestep


start timestep kper="1" kstp="210" mode="normal"


end timestep


start timestep kper="1" kstp="211" mode="normal"


end timestep


start timestep kper="1" kstp="212" mode="normal"


end timestep


start timestep kper="1" kstp="213" mode="normal"


end timestep


start timestep kper="1" kstp="214" mode="normal"


end timestep


start timestep kper="1" kstp="215" mode="normal"


end timestep


start timestep kper="1" kstp="216" mode="normal"


end timestep


start timestep kper="1" kstp="217" mode="normal"


end timestep


start timestep kper="1" kstp="218" mode="normal"


end timestep


start timestep kper="1" kstp="219" mode="normal"


end timestep


start timestep kper="1" kstp="220" mode="normal"


end timestep


start timestep kper="1" kstp="221" mode="normal"


end timestep


start timestep kper="1" kstp="222" mode="normal"


end timestep


start timestep kper="1" kstp="223" mode="normal"


end timestep


start timestep kper="1" kstp="224" mode="normal"


end timestep


start timestep kper="1" kstp="225" mode="normal"


end timestep


start timestep kper="1" kstp="226" mode="normal"


end timestep


start timestep kper="1" kstp="227" mode="normal"


end timestep


start timestep kper="1" kstp="228" mode="normal"


end timestep


start timestep kper="1" kstp="229" mode="normal"


end timestep


start timestep kper="1" kstp="230" mode="normal"


end timestep


start timestep kper="1" kstp="231" mode="normal"


end timestep


start timestep kper="1" kstp="232" mode="normal"


end timestep


start timestep kper="1" kstp="233" mode="normal"


end timestep


start timestep kper="1" kstp="234" mode="normal"


end timestep


start timestep kper="1" kstp="235" mode="normal"


end timestep


start timestep kper="1" kstp="236" mode="normal"


end timestep


start timestep kper="1" kstp="237" mode="normal"


end timestep


start timestep kper="1" kstp="238" mode="normal"


end timestep


start timestep kper="1" kstp="239" mode="normal"


end timestep


start timestep kper="1" kstp="240" mode="normal"


end timestep


start timestep kper="1" kstp="241" mode="normal"


end timestep


start timestep kper="1" kstp="242" mode="normal"


end timestep


start timestep kper="1" kstp="243" mode="normal"


end timestep


start timestep kper="1" kstp="244" mode="normal"


end timestep


start timestep kper="1" kstp="245" mode="normal"


end timestep


start timestep kper="1" kstp="246" mode="normal"


end timestep


start timestep kper="1" kstp="247" mode="normal"


end timestep


start timestep kper="1" kstp="248" mode="normal"


end timestep


start timestep kper="1" kstp="249" mode="normal"


end timestep


start timestep kper="1" kstp="250" mode="normal"


end timestep


start timestep kper="1" kstp="251" mode="normal"


end timestep


start timestep kper="1" kstp="252" mode="normal"


end timestep


start timestep kper="1" kstp="253" mode="normal"


end timestep


start timestep kper="1" kstp="254" mode="normal"


end timestep


start timestep kper="1" kstp="255" mode="normal"


end timestep


start timestep kper="1" kstp="256" mode="normal"


end timestep


start timestep kper="1" kstp="257" mode="normal"


end timestep


start timestep kper="1" kstp="258" mode="normal"


end timestep


start timestep kper="1" kstp="259" mode="normal"


end timestep


start timestep kper="1" kstp="260" mode="normal"


end timestep


start timestep kper="1" kstp="261" mode="normal"


end timestep


start timestep kper="1" kstp="262" mode="normal"


end timestep


start timestep kper="1" kstp="263" mode="normal"


end timestep


start timestep kper="1" kstp="264" mode="normal"


end timestep


start timestep kper="1" kstp="265" mode="normal"


end timestep


start timestep kper="1" kstp="266" mode="normal"


end timestep


start timestep kper="1" kstp="267" mode="normal"


end timestep


start timestep kper="1" kstp="268" mode="normal"


end timestep


start timestep kper="1" kstp="269" mode="normal"


end timestep


start timestep kper="1" kstp="270" mode="normal"


end timestep


start timestep kper="1" kstp="271" mode="normal"


end timestep


start timestep kper="1" kstp="272" mode="normal"


end timestep


start timestep kper="1" kstp="273" mode="normal"


end timestep


start timestep kper="1" kstp="274" mode="normal"


end timestep


start timestep kper="1" kstp="275" mode="normal"


end timestep


start timestep kper="1" kstp="276" mode="normal"


end timestep


start timestep kper="1" kstp="277" mode="normal"


end timestep


start timestep kper="1" kstp="278" mode="normal"


end timestep


start timestep kper="1" kstp="279" mode="normal"


end timestep


start timestep kper="1" kstp="280" mode="normal"


end timestep


start timestep kper="1" kstp="281" mode="normal"


end timestep


start timestep kper="1" kstp="282" mode="normal"


end timestep


start timestep kper="1" kstp="283" mode="normal"


end timestep


start timestep kper="1" kstp="284" mode="normal"


end timestep


start timestep kper="1" kstp="285" mode="normal"


end timestep


start timestep kper="1" kstp="286" mode="normal"


end timestep


start timestep kper="1" kstp="287" mode="normal"


end timestep


start timestep kper="1" kstp="288" mode="normal"


end timestep


start timestep kper="1" kstp="289" mode="normal"


end timestep


start timestep kper="1" kstp="290" mode="normal"


end timestep


start timestep kper="1" kstp="291" mode="normal"


end timestep


start timestep kper="1" kstp="292" mode="normal"


end timestep


start timestep kper="1" kstp="293" mode="normal"


end timestep


start timestep kper="1" kstp="294" mode="normal"


end timestep


start timestep kper="1" kstp="295" mode="normal"


end timestep


start timestep kper="1" kstp="296" mode="normal"


end timestep


start timestep kper="1" kstp="297" mode="normal"


end timestep


start timestep kper="1" kstp="298" mode="normal"


end timestep


start timestep kper="1" kstp="299" mode="normal"


end timestep


start timestep kper="1" kstp="300" mode="normal"


end timestep


start timestep kper="1" kstp="301" mode="normal"


end timestep


start timestep kper="1" kstp="302" mode="normal"


end timestep


start timestep kper="1" kstp="303" mode="normal"


end timestep


start timestep kper="1" kstp="304" mode="normal"


end timestep


start timestep kper="1" kstp="305" mode="normal"


end timestep


start timestep kper="1" kstp="306" mode="normal"


end timestep


start timestep kper="1" kstp="307" mode="normal"


end timestep


start timestep kper="1" kstp="308" mode="normal"


end timestep


start timestep kper="1" kstp="309" mode="normal"


end timestep


start timestep kper="1" kstp="310" mode="normal"


end timestep


start timestep kper="1" kstp="311" mode="normal"


end timestep


start timestep kper="1" kstp="312" mode="normal"


end timestep


start timestep kper="1" kstp="313" mode="normal"


end timestep


start timestep kper="1" kstp="314" mode="normal"


end timestep


start timestep kper="1" kstp="315" mode="normal"


end timestep


start timestep kper="1" kstp="316" mode="normal"


end timestep


start timestep kper="1" kstp="317" mode="normal"


end timestep


start timestep kper="1" kstp="318" mode="normal"


end timestep


start timestep kper="1" kstp="319" mode="normal"


end timestep


start timestep kper="1" kstp="320" mode="normal"


end timestep


start timestep kper="1" kstp="321" mode="normal"


end timestep


start timestep kper="1" kstp="322" mode="normal"


end timestep


start timestep kper="1" kstp="323" mode="normal"


end timestep


start timestep kper="1" kstp="324" mode="normal"


end timestep


start timestep kper="1" kstp="325" mode="normal"


end timestep


start timestep kper="1" kstp="326" mode="normal"


end timestep


start timestep kper="1" kstp="327" mode="normal"


end timestep


start timestep kper="1" kstp="328" mode="normal"


end timestep


start timestep kper="1" kstp="329" mode="normal"


end timestep


start timestep kper="1" kstp="330" mode="normal"


end timestep


start timestep kper="1" kstp="331" mode="normal"


end timestep


start timestep kper="1" kstp="332" mode="normal"


end timestep


start timestep kper="1" kstp="333" mode="normal"


end timestep


start timestep kper="1" kstp="334" mode="normal"


end timestep


start timestep kper="1" kstp="335" mode="normal"


end timestep


start timestep kper="1" kstp="336" mode="normal"


end timestep


start timestep kper="1" kstp="337" mode="normal"


end timestep


start timestep kper="1" kstp="338" mode="normal"


end timestep


start timestep kper="1" kstp="339" mode="normal"


end timestep


start timestep kper="1" kstp="340" mode="normal"


end timestep


start timestep kper="1" kstp="341" mode="normal"


end timestep


start timestep kper="1" kstp="342" mode="normal"


end timestep


start timestep kper="1" kstp="343" mode="normal"


end timestep


start timestep kper="1" kstp="344" mode="normal"


end timestep


start timestep kper="1" kstp="345" mode="normal"


end timestep


start timestep kper="1" kstp="346" mode="normal"


end timestep


start timestep kper="1" kstp="347" mode="normal"


end timestep


start timestep kper="1" kstp="348" mode="normal"


end timestep


start timestep kper="1" kstp="349" mode="normal"


end timestep


start timestep kper="1" kstp="350" mode="normal"


end timestep


start timestep kper="1" kstp="351" mode="normal"


end timestep


start timestep kper="1" kstp="352" mode="normal"


end timestep


start timestep kper="1" kstp="353" mode="normal"


end timestep


start timestep kper="1" kstp="354" mode="normal"


end timestep


start timestep kper="1" kstp="355" mode="normal"


end timestep


start timestep kper="1" kstp="356" mode="normal"


end timestep


start timestep kper="1" kstp="357" mode="normal"


end timestep


start timestep kper="1" kstp="358" mode="normal"


end timestep


start timestep kper="1" kstp="359" mode="normal"


end timestep


start timestep kper="1" kstp="360" mode="normal"


end timestep


start timestep kper="1" kstp="361" mode="normal"


end timestep


start timestep kper="1" kstp="362" mode="normal"


end timestep


start timestep kper="1" kstp="363" mode="normal"


end timestep


start timestep kper="1" kstp="364" mode="normal"


end timestep


start timestep kper="1" kstp="365" mode="normal"

 UBDSV1 SAVING  STORAGE-AQUEOUS ON UNIT   1027 AT TIME STEP    365, STRESS PERIOD      1
 UBDSV1 SAVING     FLOW-JA-FACE ON UNIT   1027 AT TIME STEP    365, STRESS PERIOD      1
 UBDSV06 SAVING  SOURCE-SINK MIX IN MODEL GWT-P09-MF6      PACKAGE GWT-P09-MF6     CONNECTED TO MODEL GWT-P09-MF6      PACKAGE SSM              ON UNIT   1027 AT TIME STEP    365, STRESS PERIOD      1

 SSM PACKAGE (SSM) FLOW RATES   PERIOD      1   STEP      365
 ------------------------------------------------------------------------------------------------
   NUMBER   CELLID                   BOUND Q        SSM CONC          RATE         PACKAGE NAME  
 ------------------------------------------------------------------------------------------------
     1      (1,4,7)               86.400000       57.870000       4999.9680           WEL-1      
     2      (1,11,7)             -1632.9600       0.78244985     -1277.7093           WEL-1      
     1      (1,1,1)               926.40695       0.0000000       0.0000000           CHD-1      
     2      (1,18,1)             -1688.7981       2.02200856E-04 -0.34147642          CHD-1      
     3      (1,1,2)               849.41011       0.0000000       0.0000000           CHD-1      
     4      (1,18,2)             -1211.8400       1.58577340E-03 -1.9217037           CHD-1      
     5      (1,1,3)               758.38311       0.0000000       0.0000000           CHD-1      
     6      (1,18,3)             -1118.1088       8.89736625E-03 -9.9482237           CHD-1      
     7      (1,1,4)               699.18629       0.0000000       0.0000000           CHD-1      
     8      (1,18,4)             -1057.9543       3.70593484E-02 -39.207098           CHD-1      
     9      (1,1,5)               694.15206       0.0000000       0.0000000           CHD-1      
     10     (1,18,5)             -1019.9787       0.10758193     -109.73127           CHD-1      
     11     (1,1,6)               752.32510       0.0000000       0.0000000           CHD-1      
     12     (1,18,6)             -999.14009       0.20396339     -203.78800           CHD-1      
     13     (1,1,7)               875.28238       0.0000000       0.0000000           CHD-1      
     14     (1,18,7)             -991.81964       0.24692603     -244.90608           CHD-1      
     15     (1,1,8)               1054.7010       0.0000000       0.0000000           CHD-1      
     16     (1,18,8)             -993.57557       0.20099914     -199.70784           CHD-1      
     17     (1,1,9)               1256.4047       0.0000000       0.0000000           CHD-1      
     18     (1,18,9)             -998.21435       0.14257830     -142.32370           CHD-1      
     19     (1,1,10)              1427.6215       0.0000000       0.0000000           CHD-1      
     20     (1,18,10)            -998.28100       8.52316624E-02 -85.085149           CHD-1      
     21     (1,1,11)              1550.5858       0.0000000       0.0000000           CHD-1      
     22     (1,18,11)            -985.50786       4.07343852E-02 -40.144057           CHD-1      
     23     (1,1,12)              1629.5884       0.0000000       0.0000000           CHD-1      
     24     (1,18,12)            -949.87505       1.50637507E-02 -14.308681           CHD-1      
     25     (1,1,13)              1674.9340       0.0000000       0.0000000           CHD-1      
     26     (1,18,13)            -875.47450       4.36995032E-03 -3.8257800           CHD-1      
     27     (1,1,14)              1695.3057       0.0000000       0.0000000           CHD-1      
     28     (1,18,14)            -409.15905       1.37743130E-03 -0.56358848          CHD-1      
 ------------------------------------------------------------------------------------------------



1
  CONCENTRATION IN LAYER   1 AT END OF TIME STEP 365 IN STRESS PERIOD    1
  ---------------------------------------------------------------------------

                1               2               3               4               5               6               7               8               9              10
               11              12              13              14
 ................................................................................................................................................................................................................................
   1    -3.637610E-08   -2.982631E-07   -1.237108E-06   -6.217016E-06   -5.295497E-05   -1.003228E-03    1.813429E-03    3.020339E-03    2.173386E-03    9.230828E-04
         2.493024E-04    4.470364E-05    5.522041E-06    5.566392E-07
   2    -1.561768E-07   -1.627010E-06   -6.339637E-06   -2.862852E-05   -1.898319E-04   -6.658413E-03    1.223738E-02    1.869915E-02    1.272245E-02    5.182159E-03
         1.337118E-03    2.253484E-04    2.545332E-05    2.237657E-06
   3     8.383400E-07   -9.807920E-06   -3.806662E-05   -1.888972E-04   -3.162778E-03   -6.315993E-02    0.189610        0.189947        0.104162        3.732760E-02
         8.873324E-03    1.400673E-03    1.477685E-04    1.163254E-05
   4     2.389047E-05    2.189207E-07   -6.443173E-05   -3.284422E-04   -3.142056E-03    9.645617E-02     3.75164         1.55818        0.612260        0.188698    
         4.117829E-02    6.164013E-03    6.235550E-04    4.614518E-05
   5     1.609028E-04    3.965031E-04    6.284989E-04    1.494548E-03    1.007763E-02    0.313217         2.01667         1.88763         1.38713        0.460558    
         0.110838        1.692629E-02    1.719671E-03    1.270481E-04
   6     1.535557E-04    1.504567E-05    3.266708E-05    5.981733E-05    1.508396E-03    3.675692E-02    0.174234        0.143642         1.29911        0.580439    
         0.162948        2.719348E-02    2.946681E-03    2.369800E-04
   7     1.531526E-04    5.078255E-07    3.414667E-07   -8.834684E-07    4.940852E-05    3.764761E-04    1.391142E-03    9.643650E-03     1.25317        0.574211    
         0.172086        3.158174E-02    3.863788E-03    3.592538E-04
   8     1.528366E-04    3.655704E-06   -1.065390E-04   -5.865512E-04    1.052239E-02    1.460947E-02    1.594699E-02    5.374007E-02     1.16074        0.542742    
         0.169063        3.396203E-02    4.662259E-03    4.986914E-04
   9     1.514867E-04    1.447151E-04    4.384932E-04    7.333220E-02    0.830492        0.926976        0.936043        0.943096        0.981252        0.491773    
         0.162121        3.532456E-02    5.379879E-03    6.568906E-04
  10     1.482220E-04    1.529796E-04    1.937647E-03    0.102970        0.747763        0.866036        0.854148        0.813354        0.776085        0.426907    
         0.151744        3.611880E-02    6.040736E-03    8.353045E-04
  11     1.434392E-04    2.182481E-04    4.534089E-03    0.119667        0.654306        0.834420        0.782450        0.728274        0.613392        0.360582    
         0.138954        3.607217E-02    6.640007E-03    1.032866E-03
  12     1.385331E-04    3.957996E-04    8.956019E-03    0.137824        0.567325        0.764420        0.675752        0.624082        0.498463        0.302737    
         0.125420        3.560385E-02    7.171367E-03    1.245248E-03
  13     1.443956E-04    9.487701E-04    1.670576E-02    0.140167        0.486187        0.683034        0.627371        0.540304        0.417241        0.256160    
         0.112309        3.458691E-02    7.638495E-03    1.466326E-03
  14     1.875431E-04    2.001165E-03    2.301127E-02    0.133843        0.408827        0.600076        0.565979        0.473084        0.355760        0.218519    
         9.980298E-02    3.290952E-02    7.893267E-03    1.680221E-03
  15     2.636863E-04    2.924917E-03    2.325732E-02    0.117772        0.333095        0.512712        0.501497        0.412030        0.303607        0.185824    
         8.726211E-02    3.036635E-02    7.799586E-03    1.807645E-03
  16     3.214424E-04    3.047426E-03    2.114139E-02    9.474200E-02    0.258987        0.419050        0.431879        0.350326        0.254040        0.154566    
         7.377611E-02    2.669173E-02    7.310671E-03    1.788978E-03
  17     3.224545E-04    2.741498E-03    1.670166E-02    6.944852E-02    0.189279        0.323426        0.354245        0.285723        0.204479        0.123305    
         5.907194E-02    2.177577E-02    6.216200E-03    1.645422E-03
  18     2.022009E-04    1.585773E-03    8.897366E-03    3.705935E-02    0.107582        0.203963        0.246926        0.200999        0.142578        8.523166E-02
         4.073439E-02    1.506375E-02    4.369950E-03    1.377431E-03

 CONCENTRATION WILL BE SAVED ON UNIT 1028 AT END OF TIME STEP  365, STRESS PERIOD    1


  MASS BUDGET FOR ENTIRE MODEL AT END OF TIME STEP  365, STRESS PERIOD   1
  ---------------------------------------------------------------------------------------------------

     CUMULATIVE MASS      M       RATES FOR THIS TIME STEP      M/T          PACKAGE NAME    
     ------------------                 ------------------------                     ----------------

           IN:                                      IN:
           ---                                      ---
     STORAGE-AQUEOUS =        5057.4372       STORAGE-AQUEOUS =           2.8058     MST                              
                 WEL =     1824988.3200                   WEL =        4999.9680     SSM_WEL-1                        
                 CHD =           0.0000                   CHD =           0.0000     SSM_CHD-1                        

            TOTAL IN =     1830045.7572              TOTAL IN =        5002.7738

          OUT:                                     OUT:
          ----                                     ----
     STORAGE-AQUEOUS =     1543442.8204       STORAGE-AQUEOUS =        2629.2618     MST                              
                 WEL =      233304.8229                   WEL =        1277.7093     SSM_WEL-1                        
                 CHD =       53298.1139                   CHD =        1095.8026     SSM_CHD-1                        

           TOTAL OUT =     1830045.7572             TOTAL OUT =        5002.7738

            IN - OUT =      -1.2759E-07              IN - OUT =       6.6393E-11

 PERCENT DISCREPANCY =          -0.00     PERCENT DISCREPANCY =           0.00




         TIME SUMMARY AT END OF TIME STEP  365 IN STRESS PERIOD    1
                    SECONDS     MINUTES      HOURS       DAYS        YEARS
                    -----------------------------------------------------------
   TIME STEP LENGTH  86400.      1440.0      24.000      1.0000     2.73785E-03
 STRESS PERIOD TIME 3.15360E+07 5.25600E+05  8760.0      365.00     0.99932    
         TOTAL TIME 3.15360E+07 5.25600E+05  8760.0      365.00     0.99932    


end timestep


start timestep kper="2" kstp="1" mode="normal"


 END OF FILE DETECTED IN OUTPUT CONTROL.
 CURRENT OUTPUT CONTROL SETTINGS WILL BE 
 REPEATED UNTIL THE END OF THE SIMULATION.

 OUTPUT CONTROL FOR STRESS PERIOD 2 IS REPEATED USING SETTINGS FROM A PREVIOUS STRESS PERIOD.

end timestep


start timestep kper="2" kstp="2" mode="normal"


end timestep


start timestep kper="2" kstp="3" mode="normal"


end timestep


start timestep kper="2" kstp="4" mode="normal"


end timestep


start timestep kper="2" kstp="5" mode="normal"


end timestep


start timestep kper="2" kstp="6" mode="normal"


end timestep


start timestep kper="2" kstp="7" mode="normal"


end timestep


start timestep kper="2" kstp="8" mode="normal"


end timestep


start timestep kper="2" kstp="9" mode="normal"


end timestep


start timestep kper="2" kstp="10" mode="normal"


end timestep


start timestep kper="2" kstp="11" mode="normal"


end timestep


start timestep kper="2" kstp="12" mode="normal"


end timestep


start timestep kper="2" kstp="13" mode="normal"


end timestep


start timestep kper="2" kstp="14" mode="normal"


end timestep


start timestep kper="2" kstp="15" mode="normal"


end timestep


start timestep kper="2" kstp="16" mode="normal"


end timestep


start timestep kper="2" kstp="17" mode="normal"


end timestep


start timestep kper="2" kstp="18" mode="normal"


end timestep


start timestep kper="2" kstp="19" mode="normal"


end timestep


start timestep kper="2" kstp="20" mode="normal"


end timestep


start timestep kper="2" kstp="21" mode="normal"


end timestep


start timestep kper="2" kstp="22" mode="normal"


end timestep


start timestep kper="2" kstp="23" mode="normal"


end timestep


start timestep kper="2" kstp="24" mode="normal"


end timestep


start timestep kper="2" kstp="25" mode="normal"


end timestep


start timestep kper="2" kstp="26" mode="normal"


end timestep


start timestep kper="2" kstp="27" mode="normal"


end timestep


start timestep kper="2" kstp="28" mode="normal"


end timestep


start timestep kper="2" kstp="29" mode="normal"


end timestep


start timestep kper="2" kstp="30" mode="normal"


end timestep


start timestep kper="2" kstp="31" mode="normal"


end timestep


start timestep kper="2" kstp="32" mode="normal"


end timestep


start timestep kper="2" kstp="33" mode="normal"


end timestep


start timestep kper="2" kstp="34" mode="normal"


end timestep


start timestep kper="2" kstp="35" mode="normal"


end timestep


start timestep kper="2" kstp="36" mode="normal"


end timestep


start timestep kper="2" kstp="37" mode="normal"


end timestep


start timestep kper="2" kstp="38" mode="normal"


end timestep


start timestep kper="2" kstp="39" mode="normal"


end timestep


start timestep kper="2" kstp="40" mode="normal"


end timestep


start timestep kper="2" kstp="41" mode="normal"


end timestep


start timestep kper="2" kstp="42" mode="normal"


end timestep


start timestep kper="2" kstp="43" mode="normal"


end timestep


start timestep kper="2" kstp="44" mode="normal"


end timestep


start timestep kper="2" kstp="45" mode="normal"


end timestep


start timestep kper="2" kstp="46" mode="normal"


end timestep


start timestep kper="2" kstp="47" mode="normal"


end timestep


start timestep kper="2" kstp="48" mode="normal"


end timestep


start timestep kper="2" kstp="49" mode="normal"


end timestep


start timestep kper="2" kstp="50" mode="normal"


end timestep


start timestep kper="2" kstp="51" mode="normal"


end timestep


start timestep kper="2" kstp="52" mode="normal"


end timestep


start timestep kper="2" kstp="53" mode="normal"


end timestep


start timestep kper="2" kstp="54" mode="normal"


end timestep


start timestep kper="2" kstp="55" mode="normal"


end timestep


start timestep kper="2" kstp="56" mode="normal"


end timestep


start timestep kper="2" kstp="57" mode="normal"


end timestep


start timestep kper="2" kstp="58" mode="normal"


end timestep


start timestep kper="2" kstp="59" mode="normal"


end timestep


start timestep kper="2" kstp="60" mode="normal"


end timestep


start timestep kper="2" kstp="61" mode="normal"


end timestep


start timestep kper="2" kstp="62" mode="normal"


end timestep


start timestep kper="2" kstp="63" mode="normal"


end timestep


start timestep kper="2" kstp="64" mode="normal"


end timestep


start timestep kper="2" kstp="65" mode="normal"


end timestep


start timestep kper="2" kstp="66" mode="normal"


end timestep


start timestep kper="2" kstp="67" mode="normal"


end timestep


start timestep kper="2" kstp="68" mode="normal"


end timestep


start timestep kper="2" kstp="69" mode="normal"


end timestep


start timestep kper="2" kstp="70" mode="normal"


end timestep


start timestep kper="2" kstp="71" mode="normal"


end timestep


start timestep kper="2" kstp="72" mode="normal"


end timestep


start timestep kper="2" kstp="73" mode="normal"


end timestep


start timestep kper="2" kstp="74" mode="normal"


end timestep


start timestep kper="2" kstp="75" mode="normal"


end timestep


start timestep kper="2" kstp="76" mode="normal"


end timestep


start timestep kper="2" kstp="77" mode="normal"


end timestep


start timestep kper="2" kstp="78" mode="normal"


end timestep


start timestep kper="2" kstp="79" mode="normal"


end timestep


start timestep kper="2" kstp="80" mode="normal"


end timestep


start timestep kper="2" kstp="81" mode="normal"


end timestep


start timestep kper="2" kstp="82" mode="normal"


end timestep


start timestep kper="2" kstp="83" mode="normal"


end timestep


start timestep kper="2" kstp="84" mode="normal"


end timestep


start timestep kper="2" kstp="85" mode="normal"


end timestep


start timestep kper="2" kstp="86" mode="normal"


end timestep


start timestep kper="2" kstp="87" mode="normal"


end timestep


start timestep kper="2" kstp="88" mode="normal"


end timestep


start timestep kper="2" kstp="89" mode="normal"


end timestep


start timestep kper="2" kstp="90" mode="normal"


end timestep


start timestep kper="2" kstp="91" mode="normal"


end timestep


start timestep kper="2" kstp="92" mode="normal"


end timestep


start timestep kper="2" kstp="93" mode="normal"


end timestep


start timestep kper="2" kstp="94" mode="normal"


end timestep


start timestep kper="2" kstp="95" mode="normal"


end timestep


start timestep kper="2" kstp="96" mode="normal"


end timestep


start timestep kper="2" kstp="97" mode="normal"


end timestep


start timestep kper="2" kstp="98" mode="normal"


end timestep


start timestep kper="2" kstp="99" mode="normal"


end timestep


start timestep kper="2" kstp="100" mode="normal"


end timestep


start timestep kper="2" kstp="101" mode="normal"


end timestep


start timestep kper="2" kstp="102" mode="normal"


end timestep


start timestep kper="2" kstp="103" mode="normal"


end timestep


start timestep kper="2" kstp="104" mode="normal"


end timestep


start timestep kper="2" kstp="105" mode="normal"


end timestep


start timestep kper="2" kstp="106" mode="normal"


end timestep


start timestep kper="2" kstp="107" mode="normal"


end timestep


start timestep kper="2" kstp="108" mode="normal"


end timestep


start timestep kper="2" kstp="109" mode="normal"


end timestep


start timestep kper="2" kstp="110" mode="normal"


end timestep


start timestep kper="2" kstp="111" mode="normal"


end timestep


start timestep kper="2" kstp="112" mode="normal"


end timestep


start timestep kper="2" kstp="113" mode="normal"


end timestep


start timestep kper="2" kstp="114" mode="normal"


end timestep


start timestep kper="2" kstp="115" mode="normal"


end timestep


start timestep kper="2" kstp="116" mode="normal"


end timestep


start timestep kper="2" kstp="117" mode="normal"


end timestep


start timestep kper="2" kstp="118" mode="normal"


end timestep


start timestep kper="2" kstp="119" mode="normal"


end timestep


start timestep kper="2" kstp="120" mode="normal"


end timestep


start timestep kper="2" kstp="121" mode="normal"


end timestep


start timestep kper="2" kstp="122" mode="normal"


end timestep


start timestep kper="2" kstp="123" mode="normal"


end timestep


start timestep kper="2" kstp="124" mode="normal"


end timestep


start timestep kper="2" kstp="125" mode="normal"


end timestep


start timestep kper="2" kstp="126" mode="normal"


end timestep


start timestep kper="2" kstp="127" mode="normal"


end timestep


start timestep kper="2" kstp="128" mode="normal"


end timestep


start timestep kper="2" kstp="129" mode="normal"


end timestep


start timestep kper="2" kstp="130" mode="normal"


end timestep


start timestep kper="2" kstp="131" mode="normal"


end timestep


start timestep kper="2" kstp="132" mode="normal"


end timestep


start timestep kper="2" kstp="133" mode="normal"


end timestep


start timestep kper="2" kstp="134" mode="normal"


end timestep


start timestep kper="2" kstp="135" mode="normal"


end timestep


start timestep kper="2" kstp="136" mode="normal"


end timestep


start timestep kper="2" kstp="137" mode="normal"


end timestep


start timestep kper="2" kstp="138" mode="normal"


end timestep


start timestep kper="2" kstp="139" mode="normal"


end timestep


start timestep kper="2" kstp="140" mode="normal"


end timestep


start timestep kper="2" kstp="141" mode="normal"


end timestep


start timestep kper="2" kstp="142" mode="normal"


end timestep


start timestep kper="2" kstp="143" mode="normal"


end timestep


start timestep kper="2" kstp="144" mode="normal"


end timestep


start timestep kper="2" kstp="145" mode="normal"


end timestep


start timestep kper="2" kstp="146" mode="normal"


end timestep


start timestep kper="2" kstp="147" mode="normal"


end timestep


start timestep kper="2" kstp="148" mode="normal"


end timestep


start timestep kper="2" kstp="149" mode="normal"


end timestep


start timestep kper="2" kstp="150" mode="normal"


end timestep


start timestep kper="2" kstp="151" mode="normal"


end timestep


start timestep kper="2" kstp="152" mode="normal"


end timestep


start timestep kper="2" kstp="153" mode="normal"


end timestep


start timestep kper="2" kstp="154" mode="normal"


end timestep


start timestep kper="2" kstp="155" mode="normal"


end timestep


start timestep kper="2" kstp="156" mode="normal"


end timestep


start timestep kper="2" kstp="157" mode="normal"


end timestep


start timestep kper="2" kstp="158" mode="normal"


end timestep


start timestep kper="2" kstp="159" mode="normal"


end timestep


start timestep kper="2" kstp="160" mode="normal"


end timestep


start timestep kper="2" kstp="161" mode="normal"


end timestep


start timestep kper="2" kstp="162" mode="normal"


end timestep


start timestep kper="2" kstp="163" mode="normal"


end timestep


start timestep kper="2" kstp="164" mode="normal"


end timestep


start timestep kper="2" kstp="165" mode="normal"


end timestep


start timestep kper="2" kstp="166" mode="normal"


end timestep


start timestep kper="2" kstp="167" mode="normal"


end timestep


start timestep kper="2" kstp="168" mode="normal"


end timestep


start timestep kper="2" kstp="169" mode="normal"


end timestep


start timestep kper="2" kstp="170" mode="normal"


end timestep


start timestep kper="2" kstp="171" mode="normal"


end timestep


start timestep kper="2" kstp="172" mode="normal"


end timestep


start timestep kper="2" kstp="173" mode="normal"


end timestep


start timestep kper="2" kstp="174" mode="normal"


end timestep


start timestep kper="2" kstp="175" mode="normal"


end timestep


start timestep kper="2" kstp="176" mode="normal"


end timestep


start timestep kper="2" kstp="177" mode="normal"


end timestep


start timestep kper="2" kstp="178" mode="normal"


end timestep


start timestep kper="2" kstp="179" mode="normal"


end timestep


start timestep kper="2" kstp="180" mode="normal"


end timestep


start timestep kper="2" kstp="181" mode="normal"


end timestep


start timestep kper="2" kstp="182" mode="normal"


end timestep


start timestep kper="2" kstp="183" mode="normal"


end timestep


start timestep kper="2" kstp="184" mode="normal"


end timestep


start timestep kper="2" kstp="185" mode="normal"


end timestep


start timestep kper="2" kstp="186" mode="normal"


end timestep


start timestep kper="2" kstp="187" mode="normal"


end timestep


start timestep kper="2" kstp="188" mode="normal"


end timestep


start timestep kper="2" kstp="189" mode="normal"


end timestep


start timestep kper="2" kstp="190" mode="normal"


end timestep


start timestep kper="2" kstp="191" mode="normal"


end timestep


start timestep kper="2" kstp="192" mode="normal"


end timestep


start timestep kper="2" kstp="193" mode="normal"


end timestep


start timestep kper="2" kstp="194" mode="normal"


end timestep


start timestep kper="2" kstp="195" mode="normal"


end timestep


start timestep kper="2" kstp="196" mode="normal"


end timestep


start timestep kper="2" kstp="197" mode="normal"


end timestep


start timestep kper="2" kstp="198" mode="normal"


end timestep


start timestep kper="2" kstp="199" mode="normal"


end timestep


start timestep kper="2" kstp="200" mode="normal"


end timestep


start timestep kper="2" kstp="201" mode="normal"


end timestep


start timestep kper="2" kstp="202" mode="normal"


end timestep


start timestep kper="2" kstp="203" mode="normal"


end timestep


start timestep kper="2" kstp="204" mode="normal"


end timestep


start timestep kper="2" kstp="205" mode="normal"


end timestep


start timestep kper="2" kstp="206" mode="normal"


end timestep


start timestep kper="2" kstp="207" mode="normal"


end timestep


start timestep kper="2" kstp="208" mode="normal"


end timestep


start timestep kper="2" kstp="209" mode="normal"


end timestep


start timestep kper="2" kstp="210" mode="normal"


end timestep


start timestep kper="2" kstp="211" mode="normal"


end timestep


start timestep kper="2" kstp="212" mode="normal"


end timestep


start timestep kper="2" kstp="213" mode="normal"


end timestep


start timestep kper="2" kstp="214" mode="normal"


end timestep


start timestep kper="2" kstp="215" mode="normal"


end timestep


start timestep kper="2" kstp="216" mode="normal"


end timestep


start timestep kper="2" kstp="217" mode="normal"


end timestep


start timestep kper="2" kstp="218" mode="normal"


end timestep


start timestep kper="2" kstp="219" mode="normal"


end timestep


start timestep kper="2" kstp="220" mode="normal"


end timestep


start timestep kper="2" kstp="221" mode="normal"


end timestep


start timestep kper="2" kstp="222" mode="normal"


end timestep


start timestep kper="2" kstp="223" mode="normal"


end timestep


start timestep kper="2" kstp="224" mode="normal"


end timestep


start timestep kper="2" kstp="225" mode="normal"


end timestep


start timestep kper="2" kstp="226" mode="normal"


end timestep


start timestep kper="2" kstp="227" mode="normal"


end timestep


start timestep kper="2" kstp="228" mode="normal"


end timestep


start timestep kper="2" kstp="229" mode="normal"


end timestep


start timestep kper="2" kstp="230" mode="normal"


end timestep


start timestep kper="2" kstp="231" mode="normal"


end timestep


start timestep kper="2" kstp="232" mode="normal"


end timestep


start timestep kper="2" kstp="233" mode="normal"


end timestep


start timestep kper="2" kstp="234" mode="normal"


end timestep


start timestep kper="2" kstp="235" mode="normal"


end timestep


start timestep kper="2" kstp="236" mode="normal"


end timestep


start timestep kper="2" kstp="237" mode="normal"


end timestep


start timestep kper="2" kstp="238" mode="normal"


end timestep


start timestep kper="2" kstp="239" mode="normal"


end timestep


start timestep kper="2" kstp="240" mode="normal"


end timestep


start timestep kper="2" kstp="241" mode="normal"


end timestep


start timestep kper="2" kstp="242" mode="normal"


end timestep


start timestep kper="2" kstp="243" mode="normal"


end timestep


start timestep kper="2" kstp="244" mode="normal"


end timestep


start timestep kper="2" kstp="245" mode="normal"


end timestep


start timestep kper="2" kstp="246" mode="normal"


end timestep


start timestep kper="2" kstp="247" mode="normal"


end timestep


start timestep kper="2" kstp="248" mode="normal"


end timestep


start timestep kper="2" kstp="249" mode="normal"


end timestep


start timestep kper="2" kstp="250" mode="normal"


end timestep


start timestep kper="2" kstp="251" mode="normal"


end timestep


start timestep kper="2" kstp="252" mode="normal"


end timestep


start timestep kper="2" kstp="253" mode="normal"


end timestep


start timestep kper="2" kstp="254" mode="normal"


end timestep


start timestep kper="2" kstp="255" mode="normal"


end timestep


start timestep kper="2" kstp="256" mode="normal"


end timestep


start timestep kper="2" kstp="257" mode="normal"


end timestep


start timestep kper="2" kstp="258" mode="normal"


end timestep


start timestep kper="2" kstp="259" mode="normal"


end timestep


start timestep kper="2" kstp="260" mode="normal"


end timestep


start timestep kper="2" kstp="261" mode="normal"


end timestep


start timestep kper="2" kstp="262" mode="normal"


end timestep


start timestep kper="2" kstp="263" mode="normal"


end timestep


start timestep kper="2" kstp="264" mode="normal"


end timestep


start timestep kper="2" kstp="265" mode="normal"


end timestep


start timestep kper="2" kstp="266" mode="normal"


end timestep


start timestep kper="2" kstp="267" mode="normal"


end timestep


start timestep kper="2" kstp="268" mode="normal"


end timestep


start timestep kper="2" kstp="269" mode="normal"


end timestep


start timestep kper="2" kstp="270" mode="normal"


end timestep


start timestep kper="2" kstp="271" mode="normal"


end timestep


start timestep kper="2" kstp="272" mode="normal"


end timestep


start timestep kper="2" kstp="273" mode="normal"


end timestep


start timestep kper="2" kstp="274" mode="normal"


end timestep


start timestep kper="2" kstp="275" mode="normal"


end timestep


start timestep kper="2" kstp="276" mode="normal"


end timestep


start timestep kper="2" kstp="277" mode="normal"


end timestep


start timestep kper="2" kstp="278" mode="normal"


end timestep


start timestep kper="2" kstp="279" mode="normal"


end timestep


start timestep kper="2" kstp="280" mode="normal"


end timestep


start timestep kper="2" kstp="281" mode="normal"


end timestep


start timestep kper="2" kstp="282" mode="normal"


end timestep


start timestep kper="2" kstp="283" mode="normal"


end timestep


start timestep kper="2" kstp="284" mode="normal"


end timestep


start timestep kper="2" kstp="285" mode="normal"


end timestep


start timestep kper="2" kstp="286" mode="normal"


end timestep


start timestep kper="2" kstp="287" mode="normal"


end timestep


start timestep kper="2" kstp="288" mode="normal"


end timestep


start timestep kper="2" kstp="289" mode="normal"


end timestep


start timestep kper="2" kstp="290" mode="normal"


end timestep


start timestep kper="2" kstp="291" mode="normal"


end timestep


start timestep kper="2" kstp="292" mode="normal"


end timestep


start timestep kper="2" kstp="293" mode="normal"


end timestep


start timestep kper="2" kstp="294" mode="normal"


end timestep


start timestep kper="2" kstp="295" mode="normal"


end timestep


start timestep kper="2" kstp="296" mode="normal"


end timestep


start timestep kper="2" kstp="297" mode="normal"


end timestep


start timestep kper="2" kstp="298" mode="normal"


end timestep


start timestep kper="2" kstp="299" mode="normal"


end timestep


start timestep kper="2" kstp="300" mode="normal"


end timestep


start timestep kper="2" kstp="301" mode="normal"


end timestep


start timestep kper="2" kstp="302" mode="normal"


end timestep


start timestep kper="2" kstp="303" mode="normal"


end timestep


start timestep kper="2" kstp="304" mode="normal"


end timestep


start timestep kper="2" kstp="305" mode="normal"


end timestep


start timestep kper="2" kstp="306" mode="normal"


end timestep


start timestep kper="2" kstp="307" mode="normal"


end timestep


start timestep kper="2" kstp="308" mode="normal"


end timestep


start timestep kper="2" kstp="309" mode="normal"


end timestep


start timestep kper="2" kstp="310" mode="normal"


end timestep


start timestep kper="2" kstp="311" mode="normal"


end timestep


start timestep kper="2" kstp="312" mode="normal"


end timestep


start timestep kper="2" kstp="313" mode="normal"


end timestep


start timestep kper="2" kstp="314" mode="normal"


end timestep


start timestep kper="2" kstp="315" mode="normal"


end timestep


start timestep kper="2" kstp="316" mode="normal"


end timestep


start timestep kper="2" kstp="317" mode="normal"


end timestep


start timestep kper="2" kstp="318" mode="normal"


end timestep


start timestep kper="2" kstp="319" mode="normal"


end timestep


start timestep kper="2" kstp="320" mode="normal"


end timestep


start timestep kper="2" kstp="321" mode="normal"


end timestep


start timestep kper="2" kstp="322" mode="normal"


end timestep


start timestep kper="2" kstp="323" mode="normal"


end timestep


start timestep kper="2" kstp="324" mode="normal"


end timestep


start timestep kper="2" kstp="325" mode="normal"


end timestep


start timestep kper="2" kstp="326" mode="normal"


end timestep


start timestep kper="2" kstp="327" mode="normal"


end timestep


start timestep kper="2" kstp="328" mode="normal"


end timestep


start timestep kper="2" kstp="329" mode="normal"


end timestep


start timestep kper="2" kstp="330" mode="normal"


end timestep


start timestep kper="2" kstp="331" mode="normal"


end timestep


start timestep kper="2" kstp="332" mode="normal"


end timestep


start timestep kper="2" kstp="333" mode="normal"


end timestep


start timestep kper="2" kstp="334" mode="normal"


end timestep


start timestep kper="2" kstp="335" mode="normal"


end timestep


start timestep kper="2" kstp="336" mode="normal"


end timestep


start timestep kper="2" kstp="337" mode="normal"


end timestep


start timestep kper="2" kstp="338" mode="normal"


end timestep


start timestep kper="2" kstp="339" mode="normal"


end timestep


start timestep kper="2" kstp="340" mode="normal"


end timestep


start timestep kper="2" kstp="341" mode="normal"


end timestep


start timestep kper="2" kstp="342" mode="normal"


end timestep


start timestep kper="2" kstp="343" mode="normal"


end timestep


start timestep kper="2" kstp="344" mode="normal"


end timestep


start timestep kper="2" kstp="345" mode="normal"


end timestep


start timestep kper="2" kstp="346" mode="normal"


end timestep


start timestep kper="2" kstp="347" mode="normal"


end timestep


start timestep kper="2" kstp="348" mode="normal"


end timestep


start timestep kper="2" kstp="349" mode="normal"


end timestep


start timestep kper="2" kstp="350" mode="normal"


end timestep


start timestep kper="2" kstp="351" mode="normal"


end timestep


start timestep kper="2" kstp="352" mode="normal"


end timestep


start timestep kper="2" kstp="353" mode="normal"


end timestep


start timestep kper="2" kstp="354" mode="normal"


end timestep


start timestep kper="2" kstp="355" mode="normal"


end timestep


start timestep kper="2" kstp="356" mode="normal"


end timestep


start timestep kper="2" kstp="357" mode="normal"


end timestep


start timestep kper="2" kstp="358" mode="normal"


end timestep


start timestep kper="2" kstp="359" mode="normal"


end timestep


start timestep kper="2" kstp="360" mode="normal"


end timestep


start timestep kper="2" kstp="361" mode="normal"


end timestep


start timestep kper="2" kstp="362" mode="normal"


end timestep


start timestep kper="2" kstp="363" mode="normal"


end timestep


start timestep kper="2" kstp="364" mode="normal"


end timestep


start timestep kper="2" kstp="365" mode="normal"

 UBDSV1 SAVING  STORAGE-AQUEOUS ON UNIT   1027 AT TIME STEP    365, STRESS PERIOD      2
 UBDSV1 SAVING     FLOW-JA-FACE ON UNIT   1027 AT TIME STEP    365, STRESS PERIOD      2
 UBDSV06 SAVING  SOURCE-SINK MIX IN MODEL GWT-P09-MF6      PACKAGE GWT-P09-MF6     CONNECTED TO MODEL GWT-P09-MF6      PACKAGE SSM              ON UNIT   1027 AT TIME STEP    365, STRESS PERIOD      2

 SSM PACKAGE (SSM) FLOW RATES   PERIOD      2   STEP      365
 ------------------------------------------------------------------------------------------------
   NUMBER   CELLID                   BOUND Q        SSM CONC          RATE         PACKAGE NAME  
 ------------------------------------------------------------------------------------------------
     1      (1,4,7)               86.400000       0.0000000       0.0000000           WEL-1      
     2      (1,11,7)             -1632.9600       2.73329732E-03 -4.4633652           WEL-1      
     1      (1,1,1)               926.40695       0.0000000       0.0000000           CHD-1      
     2      (1,18,1)             -1688.7981       5.59867811E-02 -94.550370           CHD-1      
     3      (1,1,2)               849.41011       0.0000000       0.0000000           CHD-1      
     4      (1,18,2)             -1211.8400       0.16108551     -195.20987           CHD-1      
     5      (1,1,3)               758.38311       0.0000000       0.0000000           CHD-1      
     6      (1,18,3)             -1118.1088       0.34289179     -383.39034           CHD-1      
     7      (1,1,4)               699.18629       0.0000000       0.0000000           CHD-1      
     8      (1,18,4)             -1057.9543       0.50586318     -535.18014           CHD-1      
     9      (1,1,5)               694.15206       0.0000000       0.0000000           CHD-1      
     10     (1,18,5)             -1019.9787       0.51822240     -528.57578           CHD-1      
     11     (1,1,6)               752.32510       0.0000000       0.0000000           CHD-1      
     12     (1,18,6)             -999.14009       0.35809806     -357.79013           CHD-1      
     13     (1,1,7)               875.28238       0.0000000       0.0000000           CHD-1      
     14     (1,18,7)             -991.81964       0.20183455     -200.18347           CHD-1      
     15     (1,1,8)               1054.7010       0.0000000       0.0000000           CHD-1      
     16     (1,18,8)             -993.57557       0.10784831     -107.15544           CHD-1      
     17     (1,1,9)               1256.4047       0.0000000       0.0000000           CHD-1      
     18     (1,18,9)             -998.21435       5.76236602E-02 -57.520764           CHD-1      
     19     (1,1,10)              1427.6215       0.0000000       0.0000000           CHD-1      
     20     (1,18,10)            -998.28100       2.98352718E-02 -29.783985           CHD-1      
     21     (1,1,11)              1550.5858       0.0000000       0.0000000           CHD-1      
     22     (1,18,11)            -985.50786       1.42964158E-02 -14.089230           CHD-1      
     23     (1,1,12)              1629.5884       0.0000000       0.0000000           CHD-1      
     24     (1,18,12)            -949.87505       6.25060944E-03 -5.9372980           CHD-1      
     25     (1,1,13)              1674.9340       0.0000000       0.0000000           CHD-1      
     26     (1,18,13)            -875.47450       2.62109497E-03 -2.2947018           CHD-1      
     27     (1,1,14)              1695.3057       0.0000000       0.0000000           CHD-1      
     28     (1,18,14)            -409.15905       1.30651307E-03 -0.53457165          CHD-1      
 ------------------------------------------------------------------------------------------------



1
  CONCENTRATION IN LAYER   1 AT END OF TIME STEP 365 IN STRESS PERIOD    2
  ---------------------------------------------------------------------------

                1               2               3               4               5               6               7               8               9              10
               11              12              13              14
 ................................................................................................................................................................................................................................
   1    -2.919740E-08   -6.306309E-08   -1.450724E-07   -3.690547E-07   -1.134843E-06   -2.935518E-06   -1.182228E-06   -3.439035E-07   -5.428695E-08    8.964982E-08
         8.602236E-08    3.917746E-08    1.127270E-08    2.608803E-09
   2    -1.314681E-07   -2.524184E-07   -5.024573E-07   -1.021720E-06   -2.555612E-06   -6.639103E-06   -3.830605E-06   -2.168303E-06   -1.123095E-06   -1.354154E-07
         1.668167E-07    1.015025E-07    3.106214E-08    7.022519E-09
   3    -8.261497E-07   -1.438470E-06   -2.603524E-06   -4.415955E-06   -7.905253E-06   -2.018659E-05   -1.888254E-05   -1.751867E-05   -1.113868E-05   -2.653910E-06
         2.228091E-07    3.375399E-07    1.129733E-07    2.497799E-08
   4    -4.541766E-06   -7.320963E-06   -1.312928E-05   -2.187664E-05   -2.493400E-05   -8.039402E-05   -1.585285E-04   -1.583072E-04   -7.419072E-05   -1.181620E-05
         8.544573E-07    1.155891E-06    3.837099E-07    8.293795E-08
   5    -1.793050E-05   -4.035552E-05   -5.914316E-05   -1.132559E-04   -3.331260E-04   -2.229163E-03   -3.144053E-03   -1.361047E-03    1.131803E-04    2.861084E-05
         9.123629E-06    3.756802E-06    1.109672E-06    2.356010E-07
   6    -1.689298E-05    2.676169E-05    5.347999E-05    1.000514E-04    1.853794E-03    4.094112E-02    0.186084        0.162731        6.152552E-04    1.051525E-04
         2.603713E-05    9.075272E-06    2.590755E-06    5.634428E-07
   7    -1.595063E-05    2.266297E-06    7.815101E-07    1.773537E-07    4.976172E-04    3.602018E-03    1.398960E-02    2.056390E-02    3.004015E-04    1.419967E-04
         4.681494E-05    1.756922E-05    5.199910E-06    1.207759E-06
   8    -1.447479E-05    6.046107E-06   -5.700977E-04   -4.842451E-04    2.663589E-02    2.329018E-02    2.426700E-02    6.904679E-02    3.549317E-04    1.777024E-04
         7.473942E-05    3.063337E-05    9.649478E-06    2.440506E-06
   9    -1.290975E-05   -2.406921E-05   -2.645124E-05    2.782930E-02    8.845338E-02    5.838281E-03    1.559471E-03    1.151069E-03    6.346668E-04    2.298238E-04
         1.137990E-04    5.065777E-05    1.717420E-05    4.776832E-06
  10    -1.210305E-05   -3.673612E-05    9.898289E-04    5.901387E-02    0.137570        9.639152E-03    1.501972E-03    1.002478E-03    6.920832E-04    3.214883E-04
         1.766539E-04    8.331680E-05    3.026236E-05    9.247894E-06
  11    -7.804912E-06    7.199446E-05    5.103954E-03    0.104435        0.205446        2.972493E-02    2.733297E-03    1.321699E-03    8.794155E-04    4.985222E-04
         2.881791E-04    1.402729E-04    5.392128E-05    1.793542E-05
  12     3.315217E-05    7.957778E-04    1.749564E-02    0.169391        0.264384        5.427147E-02    7.084983E-03    2.309794E-03    1.407621E-03    8.629657E-04
         4.978930E-04    2.446325E-04    9.801164E-05    3.497000E-05
  13     2.665499E-04    4.057069E-03    4.738266E-02    0.241217        0.314473        8.586313E-02    1.563719E-02    4.751976E-03    2.643083E-03    1.606674E-03
         9.006511E-04    4.400087E-04    1.810586E-04    6.818115E-05
  14     1.278491E-03    1.344906E-02    9.396145E-02    0.311156        0.360763        0.125736        3.047557E-02    1.001119E-02    5.244075E-03    3.065498E-03
         1.662412E-03    8.015220E-04    3.349268E-04    1.312451E-04
  15     4.157144E-03    3.167591E-02    0.151654        0.374349        0.405187        0.173966        5.423287E-02    2.008512E-02    1.025349E-02    5.755876E-03
         3.030670E-03    1.438780E-03    6.064130E-04    2.450740E-04
  16     1.070776E-02    6.028126E-02    0.214466        0.428345        0.446996        0.228913        8.872449E-02    3.719832E-02    1.897292E-02    1.030308E-02
         5.282684E-03    2.466543E-03    1.045203E-03    4.352811E-04
  17     2.451536E-02    0.100593        0.277589        0.472637        0.482952        0.286145        0.133252        6.265141E-02    3.239683E-02    1.711830E-02
         8.515615E-03    3.879763E-03    1.645647E-03    7.257873E-04
  18     5.598678E-02    0.161086        0.342892        0.505863        0.518222        0.358098        0.201835        0.107848        5.762366E-02    2.983527E-02
         1.429642E-02    6.250609E-03    2.621095E-03    1.306513E-03

 CONCENTRATION WILL BE SAVED ON UNIT 1028 AT END OF TIME STEP  365, STRESS PERIOD    2


  MASS BUDGET FOR ENTIRE MODEL AT END OF TIME STEP  365, STRESS PERIOD   2
  ---------------------------------------------------------------------------------------------------

     CUMULATIVE MASS      M       RATES FOR THIS TIME STEP      M/T          PACKAGE NAME    
     ------------------                 ------------------------                     ----------------

           IN:                                      IN:
           ---                                      ---
     STORAGE-AQUEOUS =     1520767.5920       STORAGE-AQUEOUS =        2520.1143     MST                              
                 WEL =     1824988.3200                   WEL =           0.0000     SSM_WEL-1                        
                 CHD =           0.0000                   CHD =           0.0000     SSM_CHD-1                        

            TOTAL IN =     3345755.9120              TOTAL IN =        2520.1143

          OUT:                                     OUT:
          ----                                     ----
     STORAGE-AQUEOUS =     1836066.8777       STORAGE-AQUEOUS =           3.4548     MST                              
                 WEL =      464818.0204                   WEL =           4.4634     SSM_WEL-1                        
                 CHD =     1044871.0139                   CHD =        2512.1961     SSM_CHD-1                        

           TOTAL OUT =     3345755.9120             TOTAL OUT =        2520.1143

            IN - OUT =      -1.1083E-07              IN - OUT =       2.3647E-09

 PERCENT DISCREPANCY =          -0.00     PERCENT DISCREPANCY =           0.00




         TIME SUMMARY AT END OF TIME STEP  365 IN STRESS PERIOD    2
                    SECONDS     MINUTES      HOURS       DAYS        YEARS
                    -----------------------------------------------------------
   TIME STEP LENGTH  86400.      1440.0      24.000      1.0000     2.73785E-03
 STRESS PERIOD TIME 3.15360E+07 5.25600E+05  8760.0      365.00     0.99932    
         TOTAL TIME 6.30720E+07 1.05120E+06  17520.      730.00      1.9986    


end timestep

